       54
#generated by Octopus
Te                 4.862025    4.862025    4.862025
Te                 1.620675    1.620675    4.862025
Te                -1.620675   -1.620675    4.862025
Te                 1.620675    4.862025    1.620675
Te                -1.620675    1.620675    1.620675
Te                -4.862025   -1.620675    1.620675
Te                -1.620675    4.862025   -1.620675
Te                -4.862025    1.620675   -1.620675
Te                -8.103375   -1.620675   -1.620675
Te                 4.862025    1.620675    1.620675
Te                 1.620675   -1.620675    1.620675
Te                -1.620675   -4.862025    1.620675
Te                 1.620675    1.620675   -1.620675
Te                -1.620675   -1.620675   -1.620675
Te                -4.862025   -4.862025   -1.620675
Te                -1.620675    1.620675   -4.862025
Te                -4.862025   -1.620675   -4.862025
Te                -8.103375   -4.862025   -4.862025
Te                 4.862025   -1.620675   -1.620675
Te                 1.620675   -4.862025   -1.620675
Te                -1.620675   -8.103375   -1.620675
Te                 1.620675   -1.620675   -4.862025
Te                -1.620675   -4.862025   -4.862025
Te                -4.862025   -8.103375   -4.862025
Te                -1.620675   -1.620675   -8.103375
Te                -4.862025   -4.862025   -8.103375
Te                -8.103375   -8.103375   -8.103375
Cd                 6.482700    6.482700    6.482700
Cd                 3.241350    3.241350    6.482700
Cd                 0.000000    0.000000    6.482700
Cd                 3.241350    6.482700    3.241350
Cd                 0.000000    3.241350    3.241350
Cd                -3.241350    0.000000    3.241350
Cd                 0.000000    6.482700    0.000000
Cd                -3.241350    3.241350    0.000000
Cd                -6.482700    0.000000    0.000000
Cd                 6.482700    3.241350    3.241350
Cd                 3.241350    0.000000    3.241350
Cd                 0.000000   -3.241350    3.241350
Cd                 3.241350    3.241350    0.000000
Cd                 0.000000    0.000000    0.000000
Cd                -3.241350   -3.241350    0.000000
Cd                 0.000000    3.241350   -3.241350
Cd                -3.241350    0.000000   -3.241350
Cd                -6.482700   -3.241350   -3.241350
Cd                 6.482700    0.000000    0.000000
Cd                 3.241350   -3.241350    0.000000
Cd                 0.000000   -6.482700    0.000000
Cd                 3.241350    0.000000   -3.241350
Cd                 0.000000   -3.241350   -3.241350
Cd                -3.241350   -6.482700   -3.241350
Cd                 0.000000    0.000000   -6.482700
Cd                -3.241350   -3.241350   -6.482700
Cd                -6.482700   -6.482700   -6.482700
