       54
#generated by Octopus
As                 4.312637    4.312637    4.312637
As                 1.437546    1.437546    4.312637
As                -1.437546   -1.437546    4.312637
As                 1.437546    4.312637    1.437546
As                -1.437546    1.437546    1.437546
As                -4.312637   -1.437546    1.437546
As                -1.437546    4.312637   -1.437546
As                -4.312637    1.437546   -1.437546
As                -7.187728   -1.437546   -1.437546
As                 4.312637    1.437546    1.437546
As                 1.437546   -1.437546    1.437546
As                -1.437546   -4.312637    1.437546
As                 1.437546    1.437546   -1.437546
As                -1.437546   -1.437546   -1.437546
As                -4.312637   -4.312637   -1.437546
As                -1.437546    1.437546   -4.312637
As                -4.312637   -1.437546   -4.312637
As                -7.187728   -4.312637   -4.312637
As                 4.312637   -1.437546   -1.437546
As                 1.437546   -4.312637   -1.437546
As                -1.437546   -7.187728   -1.437546
As                 1.437546   -1.437546   -4.312637
As                -1.437546   -4.312637   -4.312637
As                -4.312637   -7.187728   -4.312637
As                -1.437546   -1.437546   -7.187728
As                -4.312637   -4.312637   -7.187728
As                -7.187728   -7.187728   -7.187728
Ga_sc              5.750182    5.750182    5.750182
Ga_sc              2.875091    2.875091    5.750182
Ga_sc              0.000000    0.000000    5.750182
Ga_sc              2.875091    5.750182    2.875091
Ga_sc              0.000000    2.875091    2.875091
Ga_sc             -2.875091    0.000000    2.875091
Ga_sc              0.000000    5.750182    0.000000
Ga_sc             -2.875091    2.875091    0.000000
Ga_sc             -5.750182    0.000000    0.000000
Ga_sc              5.750182    2.875091    2.875091
Ga_sc              2.875091    0.000000    2.875091
Ga_sc              0.000000   -2.875091    2.875091
Ga_sc              2.875091    2.875091    0.000000
Ga_sc              0.000000    0.000000    0.000000
Ga_sc             -2.875091   -2.875091    0.000000
Ga_sc              0.000000    2.875091   -2.875091
Ga_sc             -2.875091    0.000000   -2.875091
Ga_sc             -5.750182   -2.875091   -2.875091
Ga_sc              5.750182    0.000000    0.000000
Ga_sc              2.875091   -2.875091    0.000000
Ga_sc              0.000000   -5.750182    0.000000
Ga_sc              2.875091    0.000000   -2.875091
Ga_sc              0.000000   -2.875091   -2.875091
Ga_sc             -2.875091   -5.750182   -2.875091
Ga_sc              0.000000    0.000000   -5.750182
Ga_sc             -2.875091   -2.875091   -5.750182
Ga_sc             -5.750182   -5.750182   -5.750182
